$ MSC.Nastran input file created on November  05, 2019 at 18:18:27 by
$ Patran 2017.0.2
$ Direct Text Input for Nastran System Cell Section
$ Direct Text Input for File Management Section
$ Direct Text Input for Executive Control
$ Normal Modes Analysis, Database
SOL 103
CEND
$ Direct Text Input for Global Case Control Data
ECHO = NONE
$ Using Nastran default values for RESVEC
SUBCASE 1
   SUBTITLE=Default
   METHOD = 1
   VECTOR(SORT1,REAL)=ALL
$ Direct Text Input for this Subcase
BEGIN BULK
CBAR   * 1830228         963             1830376         1830411                
*        0.             -1.             -6.72663-6                              
CBAR   * 1830229         963             1830411         1830410                
*        0.             -1.             -6.72663-6                              
CBAR   * 1830230         963             1830410         1830409                
*        0.             -1.             -6.72663-6                              
CBAR   * 1830231         963             1830409         1830408                
*        0.             -1.             -6.72663-6                              
CBAR   * 1830232         963             1830408         1830407                
*        0.             -1.             -6.72663-6                              
CBAR   * 1830233         963             1830407         1830406                
*        0.             -1.             -6.72663-6                              
CBAR   * 1830234         963             1830406         1830405                
*        0.             -1.             -6.72663-6                              
CBAR   * 1830235         963             1830405         1830404                
*        0.             -1.             -6.72663-6                              
CBAR   * 1830236         963             1830404         1830395                
*        0.             -1.             -6.72663-6                              
CBAR   * 1830237         963             1830395         1830493                
*        0.             -1.             -6.72663-6                              
CBAR   * 1830238         963             1830493         1830492                
*        0.             -1.             -6.72663-6                              
CBAR   * 1830239         963             1830492         1830491                
*        0.             -1.             -6.72663-6                              
CBAR   * 1830240         963             1830491         1830490                
*        0.             -1.             -6.72663-6                              
CBAR   * 1830241         963             1830490         1830489                
*        0.             -1.             -6.72663-6                              
CBAR   * 1830242         963             1830489         1830488                
*        0.             -1.             -6.72663-6                              
CBAR   * 1830243         963             1830488         1830487                
*        0.             -1.             -6.72663-6                              
CBAR   * 1830244         963             1830487         1830486                
*        0.             -1.             -6.72663-6                              
CBAR   * 1830245         963             1830486         1830485                
*        0.             -1.             -6.72663-6                              
CBAR   * 1830246         963             1830485         1830510                
*        0.             -1.             -6.72663-6                              
CBAR   * 1830247         963             1830510         1830509                
*        0.             -1.             -6.72663-6                              
$ ... 176 like lines cut
CBUSH    1830336 945     1830187 1830946                         0              
+       .5                                                                      
CBUSH    1830337 945     1830184 1830943                         0              
+       .5                                                                      
CBUSH    1830338 945     1830181 1830940                         0              
+       .5                                                                      
CBUSH    1830339 945     1830178 1830937                         0              
+       .5                                                                      
CBUSH    1830340 945     1830175 1830934                         0              
+       .5                                                                      
CBUSH    1830341 945     1830172 1830931                         0              
+       .5                                                                      
CBUSH    1830342 945     1830094 1830927                         0              
+       .5                                                                      
CBUSH    1830343 945     1830097 1830924                         0              
+       .5                                                                      
CBUSH    1830344 945     1830100 1830921                         0              
+       .5                                                                      
CBUSH    1830345 945     1830103 1830918                         0              
+       .5                                                                      
CBUSH    1830346 945     1830106 1830915                         0              
+       .5                                                                      
CBUSH    1830347 945     1830109 1830912                         0              
+       .5                                                                      
CBUSH    1830348 945     1830267 1830951                         0              
+       .5                                                                      
CBUSH    1830349 945     1830270 1830954                         0              
+       .5                                                                      
CBUSH    1830350 945     1830273 1830957                         0              
+       .5                                                                      
CBUSH    1830351 945     1830276 1830960                         0              
+       .5                                                                      
CBUSH    1830352 945     1830279 1830963                         0              
+       .5                                                                      
CBUSH    1830353 945     1830282 1830966                         0              
+       .5                                                                      
CBUSH    1830354 945     1830323 1830970                         0              
+       .5                                                                      
CBUSH    1830355 945     1830326 1830973                         0              
+       .5                                                                      
$ ... 8 like lines cut
CORD2C   1604848         0.      0.      0.     1.       0.      0.             
+        0.     1.       0.                                                     
CORD2R * 70                             .021099999547005-1.83729905984-4        
*       8.3050544-8     1.02109999954701-1.83729905984-48.3050544-8             
*       .021099999547005.9998162688010535.09350493-5                            
*                                                                               
CQUAD4   1830000 1812    1830072 1830073 1830110 1830111 0.      0.             
CQUAD4   1830001 1812    1830073 1830074 1830109 1830110 0.      0.             
CQUAD4   1830002 1812    1830074 1830075 1830108 1830109 0.      0.             
CQUAD4   1830003 1812    1830075 1830076 1830107 1830108 0.      0.             
CQUAD4   1830004 1812    1830076 1830077 1830106 1830107 0.      0.             
CQUAD4   1830005 1812    1830077 1830078 1830105 1830106 0.      0.             
CQUAD4   1830006 1812    1830078 1830079 1830104 1830105 0.      0.             
CQUAD4   1830007 1812    1830079 1830080 1830103 1830104 0.      0.             
CQUAD4   1830008 1812    1830080 1830081 1830102 1830103 0.      0.             
CQUAD4   1830009 1812    1830081 1830082 1830101 1830102 0.      0.             
CQUAD4   1830010 1812    1830082 1830083 1830100 1830101 0.      0.             
CQUAD4   1830011 1812    1830083 1830084 1830099 1830100 0.      0.             
CQUAD4   1830012 1812    1830084 1830085 1830098 1830099 0.      0.             
CQUAD4   1830013 1812    1830085 1830086 1830097 1830098 0.      0.             
CQUAD4   1830014 1812    1830086 1830087 1830096 1830097 0.      0.             
CQUAD4   1830015 1812    1830087 1830088 1830095 1830096 0.      0.             
CQUAD4   1830016 1812    1830088 1830089 1830094 1830095 0.      0.             
CQUAD4   1830017 1812    1830089 1830090 1830093 1830094 0.      0.             
CQUAD4   1830018 1812    1830090 1830091 1830092 1830093 0.      0.             
CQUAD4   1830019 1812    1830111 1830110 1830130 1830131 0.      0.             
$ ... 758 like lines cut
EIGRL    1      -1.     100.     30      0                       MASS           
GRID   * 1830000         1604848        .419000013462728-87.500363059403        
*       .021099999547005 1604848                                                
GRID   * 1830001         1604848        .418999998056721-82.499418577447        
*       .021099999547005 1604848                                                
GRID   * 1830002         1604848        .418999987748723-77.500284441083        
*       .021099999547005 1604848                                                
GRID   * 1830003         1604848        .419000002030763-72.50048146582         
*       .021099999547005 1604848                                                
GRID   * 1830004         1604848        .419000005226669-67.499838685573        
*       .021099999547005 1604848                                                
GRID   * 1830005         1604848        .419000006257664-62.499304454347        
*       .021099999547005 1604848                                                
GRID   * 1830006         1604848        .418999999360717-57.499891943691        
*       .021099999547005 1604848                                                
GRID   * 1830007         1604848        .418999988502458-52.500871144722        
*       .021099999547005 1604848                                                
GRID   * 1830008         1604848        .419000006782719-47.500521208045        
*       .021099999547005 1604848                                                
GRID   * 1830009         1604848        .419000008163937-42.499804738822        
*       .021099999547005 1604848                                                
GRID   * 1830010         1604848        .419000012925339-37.499655378071        
*       .021099999547005 1604848                                                
GRID   * 1830011         1604848        .418999995563784-32.500623000261        
*       .021099999547005 1604848                                                
GRID   * 1830012         1604848        .419000004817976-27.500739295322        
*       .021099999547005 1604848                                                
GRID   * 1830013         1604848        .419000011738729-22.500110218286        
*       .021099999547005 1604848                                                
GRID   * 1830014         1604848        .418999989992145-17.499540418468        
*       .021099999547005 1604848                                                
GRID   * 1830015         1604848        .419000007533255-12.500047854473        
*       .021099999547005 1604848                                                
GRID   * 1830016         1604848        .418999985022485-7.500723982028         
*       .021099999547005 1604848                                                
GRID   * 1830017         1604848        .419000002878375-2.5002578030952        
*       .021099999547005 1604848                                                
GRID   * 1830018         1604848        .4189999988301282.50043195706808        
*       .021099999547005 1604848                                                
GRID   * 1830019         1604848        .4189999951390097.50057839223569        
*       .021099999547005 1604848                                                
$ ... 1936 like lines cut
MAT1     1101   7.1+10  2.69+10 .33     2800.   2.35-5  20.                     
MAT8     140    1000.   1000.   .25     1000.   3.103+8 1.379+8 50.             
+       2.3-5   2.3-5   20.     1.+23   1.+23   1.+23   1.+23   1.+23           
MAT8     193    6.96+10 6.96+10 .33     2.62+10 2.62+10 2.62+10 2800.           
+       2.4-5   2.4-5   20.     1.+23   1.+23   1.+23   1.+23   1.+23           
PARAM    AUTOSPC NO                                                             
PARAM    GRDPNT  0                                                              
PARAM    POST    0                                                              
PARAM   PRTMAXIM YES                                                            
PARAM    SNORM   0.                                                             
PBAR     963     1101   9.4-5   8.281-9 3.219-9 1.24-10                         
PBUSH    945     K      1.+10   1.+10   1.+10   10000.  10000.  10000.          
+                RCV    1.      1.      1.      1.                              
PCOMP    1960   -.015   2.99047 2.+7     TSAI   20.                             
+        193    4.-4     0.      YES     140    .0292    0.      YES            
+        193    4.-4     0.      YES                                            
PSHELL   1812    1101   .003     1101            1101           2.99047         
PSHELL   1962    1101   .0029    1101            1101           2.99047         
RBE2   * 2300769         1830886         123456          1830890                
*       2.350000068-5                                                           
RBE2   * 2300770         1830884         123456          1830892                
*       2.350000068-5                                                           
RBE2   * 2300771         1830894         123456          1830882                
*       2.350000068-5                                                           
RBE2   * 2300772         1830896         123456          1830880                
*       2.350000068-5                                                           
RBE2   * 2300773         1830898         123456          1830878                
*       2.350000068-5                                                           
RBE2   * 2300774         1830900         123456          1830869                
*       2.350000068-5                                                           
RBE2   * 2300775         1830902         123456          1830871                
*       2.350000068-5                                                           
RBE2   * 2300776         1830904         123456          1830873                
*       2.350000068-5                                                           
RBE2   * 2300777         1830906         123456          1830875                
*       2.350000068-5                                                           
RBE2   * 2300778         1830908         123456          1830877                
*       2.350000068-5                                                           
RBE2   * 2300779         1830210         123456          1830018                
*       8.500000149-6                                                           
RBE2   * 2300780         1830211         123456          1830019                
*       8.500000149-6                                                           
RBE2   * 2300781         1830212         123456          1830020                
*       8.500000149-6                                                           
RBE2   * 2300782         1830213         123456          1830021                
*       8.500000149-6                                                           
RBE2   * 2300783         1830214         123456          1830022                
*       8.500000149-6                                                           
RBE2   * 2300784         1830215         123456          1830023                
*       8.500000149-6                                                           
RBE2   * 2300785         1830216         123456          1830024                
*       8.500000149-6                                                           
RBE2   * 2300786         1830217         123456          1830025                
*       8.500000149-6                                                           
RBE2   * 2300787         1830218         123456          1830026                
*       8.500000149-6                                                           
RBE2   * 2300788         1830219         123456          1830027                
*       8.500000149-6                                                           
$ ... 124 like lines cut
ENDDATA
